22

 C    2.519698360578    0.973253381640   -0.708648768881
 C    2.519698360578    0.973253381640    0.706491655240
 C    2.519698360578   -0.372615381266    1.143824129468
 C    2.519690356759   -1.204440764493   -0.001029115160
 C    2.519688197703   -0.372672247032   -1.145923675081
 C   -2.519711315226    0.975671304562   -0.704958470749
 C   -2.519711898009    0.973694700557    0.710151726618
 C   -2.519712916727   -0.372794895550    1.145638291941
 C   -2.519670356945   -1.203031250539   -0.000367821928
 C   -2.519665376648   -0.369682019712   -1.144112321122
 H    2.505668811012    1.845796991743   -1.342601336932
 H    2.505560592259    1.845815178087    1.340416787428
 H    2.505572989127   -0.705879238757    2.169572984454
 H    2.505690358048   -2.282971727594   -0.001028559636
 H    2.505740902416   -0.706005603546   -2.171652384205
 H   -2.505654277692    1.849086943906   -1.337708467966
 H   -2.505701768106    1.845361961392    1.345309140949
 H   -2.505591380953   -0.707451918634    2.170933516479
 H   -2.505567256255   -2.281559810823   -0.001879620196
 H   -2.505342207735   -0.701608509085   -2.170291979280
Be    1.014028930112   -0.000790995358   -0.001440940694
Be   -1.014073423440   -0.000121475706   -0.000097645302

