22

 C    3.058962673456    0.964500367066   -0.708790957901
 C    3.058962673456    0.964500367066    0.698805458181
 C    3.058962673456   -0.374172533997    1.133871584792
 C    3.058998757108   -1.201617477005   -0.004839324768
 C    3.058970923247   -0.374303364375   -1.143645291048
 C   -3.058915676083    0.976305049803   -0.694824250991
 C   -3.058921301706    0.972967805644    0.712729830249
 C   -3.058928751561   -0.366590753062    1.144685811382
 C   -3.058953467915   -1.191491124784    0.004130224535
 C   -3.058928970125   -0.361547846771   -1.132761074247
 H    3.067636771494    1.836167697799   -1.342114131032
 H    3.067348626088    1.836165667852    1.332135306107
 H    3.067420082750   -0.707083843856    2.158603720067
 H    3.067725958900   -2.279068752940   -0.004807622819
 H    3.067801650340   -0.707479698760   -2.168288138841
 H   -3.067467804931    1.849375620084   -1.326213241607
 H   -3.067286696203    1.843151149811    1.348094595388
 H   -3.067543644052   -0.701930454621    2.168624523052
 H   -3.067776217397   -2.268938611533    0.001582782771
 H   -3.067807328757   -0.692457810490   -2.158137682001
Mg    1.177839193725   -0.005204624700   -0.005554774904
Mg   -1.177946185427    0.000594723870    0.000472506671

