26
XYZ file generated by Avogadro.
C      3.37740    1.00530   -0.71519
C      3.37740    1.00530    0.71492
C      3.37740   -0.36132    1.15912
C      3.39022   -1.20359   -0.00015
C      3.37750   -0.36133   -1.15939
C     -3.37911    0.98344   -0.70903
C     -3.37809    0.97563    0.72094
C     -3.37597   -0.39322    1.15784
C     -3.38828   -1.22941   -0.00607
C     -3.37749   -0.38053   -1.16086
H      3.38038    1.88726   -1.35546
H      3.38028    1.88725    1.35520
H      3.40336   -0.69787    2.19580
H      3.38839   -2.29320   -0.00016
H      3.40332   -0.69789   -2.19606
H     -3.38315    1.86902   -1.34424
H     -3.38140    1.85421    1.36580
H     -3.40238   -0.73563    2.19258
H     -3.38769   -2.31901   -0.01202
H     -3.40547   -0.71165   -2.19924
Mg     1.36997    0.00303   -0.00002
Mg    -1.37028   -0.02388   -0.00108
H     -0.00992    1.25083    0.00208
H      0.01008   -1.27660   -0.00353
H     -0.13744   -0.00096   -1.40224
H     -0.20477    0.00882    1.64703
