22

 C    3.533314161486    0.885648921914   -0.639913984382
 C    3.533314161486    0.885648921914    0.799170433741
 C    3.533314161486   -0.483023491963    1.243804874578
 C    3.533283991070   -1.329082076244    0.079696274171
 C    3.533158080773   -0.483648747832   -1.084866490922
 C   -3.535094055516    1.094493258885   -0.799981553675
 C   -3.535093161886    1.094586192989    0.639184704223
 C   -3.535098125905   -0.273843500528    1.084356536103
 C   -3.535078518708   -1.120271976237   -0.079483142552
 C   -3.534928246229   -0.275101763758   -1.244236872678
 H    3.578079197718    1.766437734849   -1.280614704435
 H    3.580532535349    1.767057807600    1.438841486344
 H    3.583874738717   -0.818835221241    2.279644806539
 H    3.583731198799   -2.418000978907    0.080674431143
 H    3.580273650455   -0.820667259096   -2.120476890780
 H   -3.585706863444    1.974948277125   -1.440705799092
 H   -3.584128797916    1.976242544109    1.278377819851
 H   -3.580558940912   -0.609478581050    2.120490051224
 H   -3.580285584821   -2.209420925571   -0.078414745162
 H   -3.583721840954   -0.612622967122   -2.279605829393
Mg    1.612235870980   -0.108040671357    0.082742612136
Mg   -1.607446918210    0.110521578318   -0.081532106324

