22

 C    2.546000000000    0.000000000000    1.147328424531
 C    2.546000000000   -1.075992602519    0.365574038982
 C    2.546000000000   -0.665000000000   -0.899331127690
 C    2.546000000000    0.665000000000   -0.899331127690
 C    2.546000000000    1.075992602519    0.365574038982
 C   -2.546000000000    0.000000000000    1.147328424531
 C   -2.546000000000   -1.075992602519    0.365574038982
 C   -2.546000000000   -0.665000000000   -0.899331127690
 C   -2.546000000000    0.665000000000   -0.899331127690
 C   -2.546000000000    1.075992602519    0.365574038982
 H    2.546000000000    0.000000000000    2.235328424531
 H    2.546000000000   -2.110742092248    0.701784528862
 H    2.546000000000   -1.304510354494   -1.779541617570
 H    2.546000000000    1.304510354494   -1.779541617570
 H    2.546000000000    2.110742092248    0.701784528862
 H   -2.546000000000    0.000000000000    2.235328424531
 H   -2.546000000000   -2.110742092248    0.701784528862
 H   -2.546000000000   -1.304510354494   -1.779541617570
 H   -2.546000000000    1.304510354494   -1.779541617570
 H   -2.546000000000    2.110742092248    0.701784528862
Mg    1.027007583111    0.000000000000   -0.043285718436
Mg   -1.027007583111    0.000000000000   -0.043285718436

