24

 C    3.403529119879    1.001899698536   -0.713491261347
 C    3.403572288230    1.001892491507    0.713154829478
 C    3.404623281403   -0.362433868327    1.156786925953
 C    3.416910714402   -1.202337993502   -0.000202569012
 C    3.404638026670   -0.362434167742   -1.157140672685
 C   -3.406618774864    0.980287042887   -0.707312849578
 C   -3.405722564893    0.972501953004    0.719145185750
 C   -3.403009907755   -0.394108381265    1.155476477784
 C   -3.413683961265   -1.227886134811   -0.006073305912
 C   -3.404340929480   -0.381464481858   -1.158531750400
 H    3.420709445987    1.885623010100   -1.354942658743
 H    3.420682326030    1.885605193931    1.354619365739
 H    3.442762660973   -0.699883647784    2.195070475060
 H    3.433719519002   -2.294131820675   -0.000213832164
 H    3.442639446222   -0.699874481098   -2.195430548631
 H   -3.425350941738    1.867458336639   -1.343919448190
 H   -3.423794258375    1.852678398519    1.365411790497
 H   -3.439830983259   -0.737340018887    2.191912865595
 H   -3.428996440887   -2.319701714703   -0.012014546478
 H   -3.442597296032   -0.713364948434   -2.198603050106
Mg    1.377993426057    0.005072469017   -0.000075118624
Mg   -1.377941119938   -0.018571473241   -0.000858046846
 H   -0.008775337596    1.258772182933    0.002184924348
 H    0.008809958654   -1.273159442145   -0.003430490528

