22

 C    3.441180923525    0.977705315022   -0.723733370008
 C    3.441180923525    0.977705315022    0.706771280111
 C    3.441180923525   -0.382748713441    1.148934587556
 C    3.441178951481   -1.223633029975   -0.008328183043
 C    3.441166399939   -0.382788442636   -1.165619820357
 C   -3.441361145694    0.996779262925   -0.700115463316
 C   -3.441375487354    0.990660149999    0.730358965242
 C   -3.441396293404   -0.371702025515    1.166704766947
 C   -3.441323122208   -1.207618489068    0.005848524935
 C   -3.441297575292   -0.361864678213   -1.147860296555
 H    3.470190745189    1.861032643551   -1.365470610755
 H    3.470375844519    1.860874255049    1.348718088812
 H    3.471559429043   -0.720219668880    2.187263016272
 H    3.472033224940   -2.315412969229   -0.008270789799
 H    3.471201758314   -0.720683626908   -2.203820257139
 H   -3.471000721493    1.882722941500   -1.338206929473
 H   -3.471120433922    1.870903983420    1.376285785493
 H   -3.471589900103   -0.713769813544    2.203533296526
 H   -3.471655142681   -2.299403231255    0.001214897600
 H   -3.471315631196   -0.695530770938   -2.187428129900
MG    1.390687760939   -0.008896143154   -0.008797779555
MG   -1.390199240363    0.002203139048    0.001732609642
