22

 C   -1.237091341227    1.042362114248    3.133048487181
 C   -1.198431225477   -0.378484007118    3.328437033430
 C    0.151056166769   -0.749231570473    3.612537717990
 C    0.950509992735    0.439363938269    3.590948655777
 C    0.087834140241    1.546135794301    3.297278395734
 C    0.152910385171    0.884400245396   -3.465509655220
 C   -1.000133632638    0.046304419222   -3.437755087155
 C   -0.557374177283   -1.316378102349   -3.363793516486
 C    0.873926301728   -1.315531684745   -3.349144794960
 C    1.314002894459    0.043518406862   -3.410436634776
 H   -2.129437110500    1.636251368882    2.926181698167
 H   -2.056395392694   -1.052765929550    3.295559384491
 H    0.506505694924   -1.755975684020    3.841172032298
 H    2.018625645874    0.498917548627    3.809529924368
 H    0.388033053314    2.594623886059    3.244553093421
 H    0.154817945116    1.973134487905   -3.546271323312
 H   -2.038445671392    0.378770198022   -3.496615151603
 H   -1.199111062957   -2.199720310925   -3.364170257340
 H    1.515950363218   -2.198486040823   -3.332234814416
 H    2.351609851190    0.381371957141   -3.445193291242
Mg    0.117472524697    0.115568385353    1.397868091368
Mg    0.134565813304   -0.247635709793   -1.362817512808

