22

 C   -0.601395903258    1.561683921053    3.180217118690
 C   -1.322820082921    0.332296572709    3.338720608292
 C   -0.374529451391   -0.709398704694    3.581437434506
 C    0.932967188520   -0.127031674657    3.572323207008
 C    0.790231982228    1.277926999405    3.325387451254
 C    0.082493901865    0.792243324089   -3.513760577730
 C   -1.071891719187   -0.045872343444   -3.460609037277
 C   -0.628781540023   -1.402910308201   -3.332430715988
 C    0.802633790698   -1.400630401925   -3.308227111222
 C    1.243105755375   -0.045223107026   -3.419323563049
 H   -1.042551447482    2.546050312983    3.012009253434
 H   -2.408380479257    0.218901946448    3.311837559428
 H   -0.607826815050   -1.758407475365    3.774245485355
 H    1.871076075626   -0.652664794003    3.761496865305
 H    1.601953499295    2.007291777645    3.290048708391
 H    0.084082326162    1.876870773691   -3.638303154941
 H   -2.109718941258    0.284126610165   -3.538504111746
 H   -1.269599074723   -2.286296397930   -3.299432090852
 H    1.444327286702   -2.282071356370   -3.250572746119
 H    2.280863681429    0.291489219983   -3.460896660216
Mg    0.029261271732    0.121446774432    1.390216220739
Mg    0.051323360382   -0.248368436291   -1.370472622621

