22

 C   -1.340678689523    0.860843873326    3.141628803343
 C   -1.103935678190   -0.540696945711    3.334600985882
 C    0.285495443510   -0.720350191239    3.610868703964
 C    0.912076521968    0.567962556771    3.586880845927
 C   -0.097627673709    1.544061478948    3.299207183084
 C    0.168266156092    0.906595813416   -3.468876516274
 C   -0.984813938266    0.068154936791   -3.443684560927
 C   -0.541839167916   -1.294395668000   -3.366302578779
 C    0.889200528115   -1.292987474763   -3.346541802782
 C    1.329159680009    0.066145326016   -3.408681425984
 H   -2.307573929288    1.325236692042    2.938507960637
 H   -1.859394968781   -1.328206513075    3.303784177691
 H    0.778797071961   -1.668083216872    3.835870765652
 H    1.962691183198    0.775097819839    3.800278227327
 H    0.053540042560    2.624103752346    3.245656962650
 H    0.169778018012    1.995286220512   -3.550267240553
 H   -2.023002019909    0.400360805913   -3.505992009402
 H   -1.183157034847   -2.178056568211   -3.367114361695
 H    1.531446128202   -2.175683809687   -3.325135834334
 H    2.366952608397    0.403881415359   -3.439060966758
Mg    0.121875748120    0.132944066034    1.397623347783
Mg    0.142050200332   -0.222971098365   -1.364487139294

