22

 C   -0.787596858864    1.471642204689    3.146577025049
 C   -1.331928422895    0.155930761116    3.327054264897
 C   -0.250605488515   -0.736444883898    3.600979603513
 C    0.962993922385    0.023282449762    3.588728924009
 C    0.627310745839    1.389165569637    3.309732877716
 C    0.099876882893    0.821094451919   -3.483419719957
 C   -1.053356189315   -0.016923105063   -3.445482020946
 C   -0.610159069174   -1.377634501857   -3.351458310028
 C    0.821303358339   -1.376424194148   -3.334156485224
 C    1.261488785433   -0.018974934735   -3.414179518084
 H   -1.360595207905    2.380135667748    2.951196398645
 H   -2.390450297590   -0.109184186193    3.292632377047
 H   -0.336740859687   -1.803412098852    3.816037847188
 H    1.963173919961   -0.360978319171    3.798841845798
 H    1.329630050214    2.223955666194    3.264790656111
 H    0.101841204770    1.908542381168   -3.580283768419
 H   -2.091672144124    0.314412954164   -3.510052841710
 H   -1.251505608017   -2.261160533166   -3.337836999893
 H    1.463113856107   -2.259100954763   -3.301727439985
 H    2.299092760781    0.318576831030   -3.451939642132
Mg    0.062161066798    0.093596575138    1.395362011190
Mg    0.079774282441   -0.275839575598   -1.365081538476

