22

 C    3.440466152713    0.989509322047   -0.714190747144
 C    3.440466152713    0.989509322047    0.716669944085
 C    3.440466152713   -0.371243302767    1.159066385940
 C    3.439437267794   -1.212410682127    0.001569647715
 C    3.438646156111   -0.371348150543   -1.156003464365
 C   -3.440233568752    0.981065938247   -0.717544546776
 C   -3.440224838207    0.975658381827    0.713378348627
 C   -3.440215400113   -0.387213070667    1.150261228782
 C   -3.439555182256   -1.223543258402   -0.010735626898
 C   -3.438935108013   -0.377814071359   -1.164903758236
 H    3.473291380885    1.872282575550   -1.355813582746
 H    3.471937837853    1.872499610856    1.358061913769
 H    3.472078084071   -0.708233744530    2.197085703596
 H    3.469918258273   -2.303793694751    0.001500033766
 H    3.468705666894   -0.708650556891   -2.193967571816
 H   -3.472807971706    1.866412407690   -1.355624881208
 H   -3.470501697985    1.856190917143    1.358197503030
 H   -3.471845948112   -0.728249793033    2.186957634825
 H   -3.471705441896   -2.314870196081   -0.014960762542
 H   -3.470160601123   -0.710159850420   -2.204431164124
Mg    1.394141375124    0.003367829322    0.003263535968
Mg   -1.394254547781    0.000825559822    0.008925985082

