24

 C    3.366801024940    0.995307626827   -0.708045398925
 C    3.366922424817    0.994432128472    0.708706580064
 C    3.367948947201   -0.361265022094    1.148809899434
 C    3.379474086685   -1.195103576673   -0.001029711259
 C    3.367822526910   -0.359869922411   -1.149824330437
 C   -3.370381235685    0.973355563956   -0.703039991688
 C   -3.369764452764    0.966498673983    0.713554813991
 C   -3.366234066489   -0.390966385947    1.148049612407
 C   -3.375565639681   -1.220096051281   -0.005327561679
 C   -3.367126765020   -0.379805327693   -1.150657722254
 H    3.372980512251    1.876579743918   -1.345809218173
 H    3.373142005251    1.874858072803    1.347628354981
 H    3.394656362468   -0.697542399631    2.183337569212
 H    3.386017854376   -2.282828788839   -0.001693286116
 H    3.394318286718   -0.694839366871   -2.184785606975
 H   -3.379080808401    1.857241280646   -1.337122594793
 H   -3.378038804698    1.844275829410    1.356086278908
 H   -3.391461400475   -0.731683945140    2.181168751066
 H   -3.379621731512   -2.307831571911   -0.010617661682
 H   -3.393269139395   -0.710527392074   -2.186992222675
Mg    1.370726958782    0.004801261461   -0.000061245042
Mg   -1.370663912033   -0.016680819204   -0.000556097997
 H   -0.007952218143    1.262898649462    0.002466187338
 H    0.008036822130   -1.275637988744   -0.003217343476

