22

 C    3.399129371925    0.967896560796   -0.719839923701
 C    3.403974040579    0.964818006690    0.701313493758
 C    3.401311405620   -0.387338526859    1.137274378249
 C    3.394479808228   -1.219952918521   -0.013852393173
 C    3.392994476003   -0.382498864049   -1.161591622132
 C   -3.401312542680    0.387338565138   -1.137273911831
 C   -3.394479059344    1.219953264239    0.013852611616
 C   -3.392993078129    0.382499594015    1.161592146303
 C   -3.399129123628   -0.967895977617    0.719840843255
 C   -3.403975424978   -0.964817917305   -0.701312583070
 H    3.420730198208    1.849022061485   -1.357707815880
 H    3.430024895411    1.842924911142    1.343267955371
 H    3.425021131673   -0.725797876790    2.171122701429
 H    3.412367890983   -2.307777689873   -0.015963198554
 H    3.409062311891   -0.716875782104   -2.196716241347
 H   -3.425023250237    0.725797723770   -2.171122314808
 H   -3.412366329075    2.307778053450    0.015963416865
 H   -3.409059453072    0.716876655586    2.196716779705
 H   -3.420729764366   -1.849021270065    1.357709099863
 H   -3.430027672321   -1.842925039082   -1.343266724826
Mg    1.373780075619   -0.004533842168   -0.004492815960
Mg   -1.373780010660    0.004532874919    0.004491141679

