22

 C    3.394365415198    0.972331630655   -0.719027868909
 C    3.396873088045    0.972773596812    0.701896505998
 C    3.400568207826   -0.378437994602    1.141428147942
 C    3.400301618367   -1.214013213702   -0.007862934455
 C    3.396530243786   -0.379118894627   -1.157603704047
 C   -3.394388070305    0.990113812318   -0.697027095874
 C   -3.391369071404    0.983695730590    0.723907012743
 C   -3.397190609477   -0.369622891797    1.156886221103
 C   -3.403665150625   -1.199626484122    0.003600522084
 C   -3.402016017536   -0.359221678029   -1.142100231560
 H    3.410505030132    1.852003261085   -1.358982316011
 H    3.415381760787    1.852857226426    1.341256621781
 H    3.422732519719   -0.714178410291    2.176271596666
 H    3.422636960480   -2.301933542258   -0.007872648022
 H    3.415173684384   -0.715793165490   -2.192113783587
 H   -3.410626492227    1.872945984721   -1.332636308085
 H   -3.405361881894    1.860671395663    1.367663530625
 H   -3.416527572528   -0.710312124057    2.190172494152
 H   -3.428658706516   -2.287481431935   -0.001437199167
 H   -3.425166815792   -0.690863157027   -2.178153984152
Mg    1.374045395974   -0.009395969553   -0.005373747418
Mg   -1.374053944029   -0.000799534604    0.003149047542

